Circuit: * D:\Facultate\VUB_sem1\Analog Electronics\Learn\Final_project\LTSpice\final_project_pss.asc

Warning: No WPE as none of SCA, SCB, SCC, SC is given and/or SC not positive.
Warning: LTspice uses BSIM4 version 4.6.1. Your model specified an unrecognized version number: 4.5000e+00
Warning:  Acde = 0.0146993 is too small.
Warning: No WPE as none of SCA, SCB, SCC, SC is given and/or SC not positive.
Warning: LTspice uses BSIM4 version 4.6.1. Your model specified an unrecognized version number: 4.5000e+00
Warning:  Acde = 0.0146993 is too small.
Warning: No WPE as none of SCA, SCB, SCC, SC is given and/or SC not positive.
Warning: LTspice uses BSIM4 version 4.6.1. Your model specified an unrecognized version number: 4.5000e+00
Warning:  Acde = 0.0146993 is too small.
Warning: No WPE as none of SCA, SCB, SCC, SC is given and/or SC not positive.
Warning: LTspice uses BSIM4 version 4.6.1. Your model specified an unrecognized version number: 4.5000e+00
Warning: No WPE as none of SCA, SCB, SCC, SC is given and/or SC not positive.
Warning: LTspice uses BSIM4 version 4.6.1. Your model specified an unrecognized version number: 4.5000e+00
Warning: No WPE as none of SCA, SCB, SCC, SC is given and/or SC not positive.
Warning: LTspice uses BSIM4 version 4.6.1. Your model specified an unrecognized version number: 4.5000e+00
Warning: No WPE as none of SCA, SCB, SCC, SC is given and/or SC not positive.
Warning: LTspice uses BSIM4 version 4.6.1. Your model specified an unrecognized version number: 4.5000e+00
Warning: No WPE as none of SCA, SCB, SCC, SC is given and/or SC not positive.
Warning: LTspice uses BSIM4 version 4.6.1. Your model specified an unrecognized version number: 4.5000e+00
Direct Newton iteration for .op point succeeded.
.step amp=1e-006
.step amp=2.15443e-006
.step amp=4.64159e-006
.step amp=1e-005
.step amp=2.15443e-005
.step amp=4.64159e-005
.step amp=0.0001
.step amp=0.000215443
.step amp=0.000464159
.step amp=0.001
.step amp=0.00215443
.step amp=0.00464159
.step amp=0.01
.step amp=0.0215443
.step amp=0.0464159
.step amp=0.1

Date: Mon Jan 04 10:50:41 2021
Total elapsed time: 6.573 seconds.

tnom = 27
temp = 27
method = modified trap
totiter = 44489
traniter = 44476
tranpoints = 14891
accept = 10321
rejected = 4570
matrix size = 30
fillins = 14
solver = Normal
Matrix Compiler1: 2.81 KB object code size  0.4/0.2/[0.1]
Matrix Compiler2: 3.02 KB object code size  0.2/0.3/[0.2]

