Circuit: * D:\Facultate\VUB_sem1\Analog Electronics\Learn\Final_project\LTSpice\final_project_noise.asc

Warning: No WPE as none of SCA, SCB, SCC, SC is given and/or SC not positive.
Warning: LTspice uses BSIM4 version 4.6.1. Your model specified an unrecognized version number: 4.5000e+00
Warning:  Acde = 0.0146993 is too small.
Warning: No WPE as none of SCA, SCB, SCC, SC is given and/or SC not positive.
Warning: LTspice uses BSIM4 version 4.6.1. Your model specified an unrecognized version number: 4.5000e+00
Warning:  Acde = 0.0146993 is too small.
Warning: No WPE as none of SCA, SCB, SCC, SC is given and/or SC not positive.
Warning: LTspice uses BSIM4 version 4.6.1. Your model specified an unrecognized version number: 4.5000e+00
Warning:  Acde = 0.0146993 is too small.
Warning: No WPE as none of SCA, SCB, SCC, SC is given and/or SC not positive.
Warning: LTspice uses BSIM4 version 4.6.1. Your model specified an unrecognized version number: 4.5000e+00
Warning: No WPE as none of SCA, SCB, SCC, SC is given and/or SC not positive.
Warning: LTspice uses BSIM4 version 4.6.1. Your model specified an unrecognized version number: 4.5000e+00
Warning: No WPE as none of SCA, SCB, SCC, SC is given and/or SC not positive.
Warning: LTspice uses BSIM4 version 4.6.1. Your model specified an unrecognized version number: 4.5000e+00
Warning: No WPE as none of SCA, SCB, SCC, SC is given and/or SC not positive.
Warning: LTspice uses BSIM4 version 4.6.1. Your model specified an unrecognized version number: 4.5000e+00
Warning: No WPE as none of SCA, SCB, SCC, SC is given and/or SC not positive.
Warning: LTspice uses BSIM4 version 4.6.1. Your model specified an unrecognized version number: 4.5000e+00
Direct Newton iteration for .op point succeeded.

out_totnvrms: INTEG(v(onoise))=0.00282615 FROM 1000 TO 1e+009
out_mp1nvrms: INTEG(v(mp1))=0.0019259 FROM 1000 TO 1e+009
out_mp2nvrms: INTEG(v(mp2))=0.00192759 FROM 1000 TO 1e+009
out_mp7nvrms: INTEG(v(mp7))=3.36011e-005 FROM 1000 TO 1e+009
out_mp8nvrms: INTEG(v(mp8))=5.70781e-006 FROM 1000 TO 1e+009
out_mp5nvrms: INTEG(v(mp5))=1.66594e-005 FROM 1000 TO 1e+009
out_mn6nvrms: INTEG(v(mn6))=2.03765e-005 FROM 1000 TO 1e+009
out_mn4nvrms: INTEG(v(mn4))=0.000547091 FROM 1000 TO 1e+009
out_mn3nvrms: INTEG(v(mn3))=0.000510996 FROM 1000 TO 1e+009
out_rmnvrms: INTEG(v(rm))=9.60838e-006 FROM 1000 TO 1e+009


Date: Mon Jan 04 10:07:16 2021
Total elapsed time: 0.099 seconds.

tnom = 27
temp = 27
method = trap
totiter = 14
traniter = 0
tranpoints = 0
accept = 0
rejected = 0
matrix size = 30
fillins = 14
solver = Normal
Matrix Compiler1:     158 opcodes
Matrix Compiler2: 3.02 KB object code size
